Version 4
SHEET 1 4176 11152
WIRE -16 -528 -96 -528
WIRE 336 -528 256 -528
WIRE 768 -528 672 -528
WIRE -96 -480 -96 -528
WIRE 256 -480 256 -528
WIRE 672 -480 672 -528
WIRE 1248 48 1200 48
WIRE 1200 112 1200 48
WIRE 224 160 128 160
WIRE 512 192 368 192
WIRE 624 192 512 192
WIRE 944 192 704 192
WIRE 1152 192 944 192
WIRE 224 224 48 224
WIRE 512 240 512 192
WIRE 128 352 128 160
WIRE 1200 352 1200 208
WIRE 1200 352 128 352
WIRE 512 416 512 304
WIRE 1200 416 1200 352
WIRE 944 432 944 192
WIRE 256 576 256 272
WIRE 512 576 512 496
WIRE 944 576 944 512
WIRE 1200 576 1200 496
FLAG 256 576 0
FLAG 1200 576 0
FLAG 256 -400 0
FLAG 672 -400 0
FLAG 336 -528 12V
IOPIN 336 -528 Out
FLAG 768 -528 48V
IOPIN 768 -528 Out
FLAG 256 112 12V
IOPIN 256 112 In
FLAG 1248 48 48V
IOPIN 1248 48 In
FLAG -96 -400 0
FLAG -16 -528 Vctrl
IOPIN -16 -528 Out
FLAG 48 224 Vctrl
IOPIN 48 224 In
FLAG 512 576 0
FLAG 944 576 0
SYMBOL OpAmps\\LT1636 256 192 R0
WINDOW 3 63 59 Left 2
SYMATTR InstName U2
SYMBOL res 720 176 R90
WINDOW 0 0 56 VBottom 2
WINDOW 3 32 56 VTop 2
SYMATTR InstName R1
SYMATTR Value 100
SYMBOL res 1184 400 R0
SYMATTR InstName R2
SYMATTR Value 30m
SYMBOL voltage 256 -496 R0
WINDOW 123 0 0 Left 0
WINDOW 39 0 0 Left 0
SYMATTR InstName V1
SYMATTR Value 12
SYMBOL voltage 672 -496 R0
WINDOW 123 0 0 Left 0
WINDOW 39 0 0 Left 0
SYMATTR InstName V2
SYMATTR Value 48
SYMBOL voltage -96 -496 R0
WINDOW 123 0 0 Left 0
WINDOW 39 0 0 Left 0
SYMATTR InstName V3
SYMATTR Value 0.09
SYMBOL cap 496 240 R0
SYMATTR InstName C1
SYMATTR Value 0.22
SYMBOL res 496 400 R0
SYMATTR InstName R3
SYMATTR Value 150
SYMBOL nmos 1152 112 R0
SYMATTR InstName M1
SYMATTR Value PSMN057_200B
SYMATTR Prefix X
SYMBOL res 928 416 R0
SYMATTR InstName R4
SYMATTR Value 10k
TEXT -128 600 Left 2 !.tran 1
TEXT 1808 -576 Left 2 !*****************************************************************\n* NXP PSMN057_200B\n*\n* Polarity N-Channel\n* Ratings 200V/5.70E-02OHMS/17A\n*\n* Date Created Wed Mar  9 18:30:10 2011\n*\n*****************************************************************\n* Model Generated by Transim Technology\n*           Copyright(c) 2004\n*         All Rights Reserved\n*    UNPUBLISHED LICENSED SOFTWARE\n*           www.transim.com\n*\n* Contains Proprietary Information Which\n* is The Property of Transim or it's licensees.\n*\n* Commercial Use or Resale Restricted by\n* Transim License Agreement.\n*\n*****************************************************************\n \n.SUBCKT PSMN057_200B DRAIN GATE SOURCE\n \nLD DRAIN 5 5e-12\nRLD2 DRAIN 5 0.01256636\nRLD1 5 4 1e-06\nLG GATE 1 5.43147180559945e-10\nRLG GATE 1 1.36507660078025\nLS SOURCE 8 3.13496339174193e-09\nRLS2 SOURCE 8 7.87901571349002\nRLS1 8 7 0.000834963391741927\n \nRDS 7 4 20000000 TC=-0.05\n \nRS 6 7 0.0001\n \nRD 3 4 0.0374854879469344 TC=-0.00649181240366078,0.000192293326408551\nRBD 9 4 0.00254352782952104 TC=-0.00649181240366078,0.000192293326408551\nDBD 7 9 DBD\n \nM1 3 2 6 6 MINT\n \nRGS 2 6 200000000\nCGS 2 6 2.99047245321969e-09\nRG 1 2 1.99784058573213\n \n* CGD\nC11    11   12   1E-12\nV11    11   0   0Vdc\nG11    3 2 VALUE { V(13, 0)*I(V11) }\nE11    12   0  3 2  1\nE12    13   0  TABLE {V(12)}\n+ -16           3925\n+ -10           3918\n+ -5            3836\n+ -4            3775\n+ -3            5378\n+ -2            5015\n+ -1            4208\n+ -0.5          3670\n+ -0.2          3242\n+ -0.1          3071\n+ 0             2885.5\n+ 0.1           2636\n+ 0.2           2329\n+ 0.5           1247\n+ 1             757\n+ 2             544\n+ 3             457\n+ 4             404\n+ 5             368\n+ 6             341\n+ 8             302\n+ 10            275\n+ 12            257\n+ 20            206\n+ 30            174\n+ 40            154\n \n\n.MODEL MINT NMOS(Vto=3.5 Kp=5.80e+01 Nfs=660000000000 Eta=1000\n+ Level=3 L=1e-4 W=1e-4 Gamma=0 Phi=0.6 Lambda=0 Is=1e-24\n+ Js=0 Pb=0.8 Pbsw=0.8 Cj=0 Cjsw=0 Cgso=0 Cgdo=0 Cgbo=0\n+ Tox=1e-07 Xj=0 Ucrit=1e4 Diomod=1 Vfb=0 Leta=0 Weta=0\n+ U0=600 Temp=0 Vdd=0 Xpart=0 Vmax=1000)\n \n.MODEL DBD D(Bv=200.00 Ibv=2.50E-04 Rs=1E-6 Is=2.50279233142471e-12\n+ N=1 M=0.55 VJ=0.5 Fc=0.5 Cjo=1.52e-09 Tt=1.33e-07)\n \n.ENDS
